data_image0
_chemical_formula_structural       FeSe
_chemical_formula_sum              "Fe1 Se1"
_cell_length_a       1.6339578865357416
_cell_length_b       1.62919603466308
_cell_length_c       1.6290834478083591
_cell_angle_alpha    89.88479579031424
_cell_angle_beta     89.72073321197011
_cell_angle_gamma    89.7146841357521

_space_group_name_H-M_alt    "P 1"
_space_group_IT_number       1

loop_
  _space_group_symop_operation_xyz
  'x, y, z'

loop_
  _atom_site_type_symbol
  _atom_site_label
  _atom_site_symmetry_multiplicity
  _atom_site_fract_x
  _atom_site_fract_y
  _atom_site_fract_z
  _atom_site_occupancy
  Fe  Fe1       1.0  0.999999911409127  0.9999999579879892  0.9999999958751603  1.0000
  Se  Se1       1.0  0.4999998642403769  0.5000001300055231  0.49999983788396984  1.0000
